
---------- Begin Simulation Statistics ----------
simSeconds                                   0.012668                       # Number of seconds simulated (Second)
simTicks                                  12668390500                       # Number of ticks simulated (Tick)
finalTick                                 12668390500                       # Number of ticks from beginning of simulation (restored from checkpoints and never reset) (Tick)
simFreq                                  1000000000000                       # The number of ticks per simulated second ((Tick/Second))
hostSeconds                                     97.87                       # Real time elapsed on the host (Second)
hostTickRate                                129436417                       # The number of ticks simulated per host second (ticks/s) ((Tick/Second))
hostMemory                                    2811968                       # Number of bytes of host memory used (Byte)
simInsts                                     18405434                       # Number of instructions simulated (Count)
simOps                                       21482674                       # Number of ops (including micro ops) simulated (Count)
hostInstRate                                   188053                       # Simulator instruction rate (inst/s) ((Count/Second))
hostOpRate                                     219494                       # Simulator op (including micro ops) rate (op/s) ((Count/Second))
system.bigCluster.clk_domain.clock                500                       # Clock period in ticks (Tick)
system.bigCluster.cpus.numCycles             25336782                       # Number of cpu cycles simulated (Cycle)
system.bigCluster.cpus.numWorkItemsStarted            0                       # Number of work items this cpu started (Count)
system.bigCluster.cpus.numWorkItemsCompleted            0                       # Number of work items this cpu completed (Count)
system.bigCluster.cpus.instsAdded            21567790                       # Number of instructions added to the IQ (excludes non-spec) (Count)
system.bigCluster.cpus.nonSpecInstsAdded         8197                       # Number of non-speculative instructions added to the IQ (Count)
system.bigCluster.cpus.instsIssued           21541384                       # Number of instructions issued (Count)
system.bigCluster.cpus.squashedInstsIssued         6929                       # Number of squashed instructions issued (Count)
system.bigCluster.cpus.squashedInstsExamined        93326                       # Number of squashed instructions iterated over during squash; mainly for profiling (Count)
system.bigCluster.cpus.squashedOperandsExamined        75633                       # Number of squashed operands that are examined and possibly removed from graph (Count)
system.bigCluster.cpus.squashedNonSpecRemoved          182                       # Number of squashed non-spec instructions that were removed (Count)
system.bigCluster.cpus.numIssuedDist::samples     25113793                       # Number of insts issued each cycle (Count)
system.bigCluster.cpus.numIssuedDist::mean     0.857751                       # Number of insts issued each cycle (Count)
system.bigCluster.cpus.numIssuedDist::stdev     1.125266                       # Number of insts issued each cycle (Count)
system.bigCluster.cpus.numIssuedDist::underflows            0      0.00%      0.00% # Number of insts issued each cycle (Count)
system.bigCluster.cpus.numIssuedDist::0      14510234     57.78%     57.78% # Number of insts issued each cycle (Count)
system.bigCluster.cpus.numIssuedDist::1       2967132     11.81%     69.59% # Number of insts issued each cycle (Count)
system.bigCluster.cpus.numIssuedDist::2       4463532     17.77%     87.37% # Number of insts issued each cycle (Count)
system.bigCluster.cpus.numIssuedDist::3       3044392     12.12%     99.49% # Number of insts issued each cycle (Count)
system.bigCluster.cpus.numIssuedDist::4        128503      0.51%    100.00% # Number of insts issued each cycle (Count)
system.bigCluster.cpus.numIssuedDist::5             0      0.00%    100.00% # Number of insts issued each cycle (Count)
system.bigCluster.cpus.numIssuedDist::6             0      0.00%    100.00% # Number of insts issued each cycle (Count)
system.bigCluster.cpus.numIssuedDist::7             0      0.00%    100.00% # Number of insts issued each cycle (Count)
system.bigCluster.cpus.numIssuedDist::8             0      0.00%    100.00% # Number of insts issued each cycle (Count)
system.bigCluster.cpus.numIssuedDist::overflows            0      0.00%    100.00% # Number of insts issued each cycle (Count)
system.bigCluster.cpus.numIssuedDist::min_value            0                       # Number of insts issued each cycle (Count)
system.bigCluster.cpus.numIssuedDist::max_value            4                       # Number of insts issued each cycle (Count)
system.bigCluster.cpus.numIssuedDist::total     25113793                       # Number of insts issued each cycle (Count)
system.bigCluster.cpus.statFuBusy::No_OpClass            0      0.00%      0.00% # attempts to use FU when none available (Count)
system.bigCluster.cpus.statFuBusy::IntAlu      4041410     55.03%     55.03% # attempts to use FU when none available (Count)
system.bigCluster.cpus.statFuBusy::IntMult           38      0.00%     55.03% # attempts to use FU when none available (Count)
system.bigCluster.cpus.statFuBusy::IntDiv            0      0.00%     55.03% # attempts to use FU when none available (Count)
system.bigCluster.cpus.statFuBusy::FloatAdd            0      0.00%     55.03% # attempts to use FU when none available (Count)
system.bigCluster.cpus.statFuBusy::FloatCmp            0      0.00%     55.03% # attempts to use FU when none available (Count)
system.bigCluster.cpus.statFuBusy::FloatCvt            0      0.00%     55.03% # attempts to use FU when none available (Count)
system.bigCluster.cpus.statFuBusy::FloatMult            0      0.00%     55.03% # attempts to use FU when none available (Count)
system.bigCluster.cpus.statFuBusy::FloatMultAcc            0      0.00%     55.03% # attempts to use FU when none available (Count)
system.bigCluster.cpus.statFuBusy::FloatDiv            0      0.00%     55.03% # attempts to use FU when none available (Count)
system.bigCluster.cpus.statFuBusy::FloatMisc            0      0.00%     55.03% # attempts to use FU when none available (Count)
system.bigCluster.cpus.statFuBusy::FloatSqrt            0      0.00%     55.03% # attempts to use FU when none available (Count)
system.bigCluster.cpus.statFuBusy::SimdAdd            0      0.00%     55.03% # attempts to use FU when none available (Count)
system.bigCluster.cpus.statFuBusy::SimdAddAcc            0      0.00%     55.03% # attempts to use FU when none available (Count)
system.bigCluster.cpus.statFuBusy::SimdAlu            0      0.00%     55.03% # attempts to use FU when none available (Count)
system.bigCluster.cpus.statFuBusy::SimdCmp            0      0.00%     55.03% # attempts to use FU when none available (Count)
system.bigCluster.cpus.statFuBusy::SimdCvt            0      0.00%     55.03% # attempts to use FU when none available (Count)
system.bigCluster.cpus.statFuBusy::SimdMisc            0      0.00%     55.03% # attempts to use FU when none available (Count)
system.bigCluster.cpus.statFuBusy::SimdMult            0      0.00%     55.03% # attempts to use FU when none available (Count)
system.bigCluster.cpus.statFuBusy::SimdMultAcc            0      0.00%     55.03% # attempts to use FU when none available (Count)
system.bigCluster.cpus.statFuBusy::SimdShift            0      0.00%     55.03% # attempts to use FU when none available (Count)
system.bigCluster.cpus.statFuBusy::SimdShiftAcc            0      0.00%     55.03% # attempts to use FU when none available (Count)
system.bigCluster.cpus.statFuBusy::SimdDiv            0      0.00%     55.03% # attempts to use FU when none available (Count)
system.bigCluster.cpus.statFuBusy::SimdSqrt            0      0.00%     55.03% # attempts to use FU when none available (Count)
system.bigCluster.cpus.statFuBusy::SimdFloatAdd            0      0.00%     55.03% # attempts to use FU when none available (Count)
system.bigCluster.cpus.statFuBusy::SimdFloatAlu            0      0.00%     55.03% # attempts to use FU when none available (Count)
system.bigCluster.cpus.statFuBusy::SimdFloatCmp            0      0.00%     55.03% # attempts to use FU when none available (Count)
system.bigCluster.cpus.statFuBusy::SimdFloatCvt            0      0.00%     55.03% # attempts to use FU when none available (Count)
system.bigCluster.cpus.statFuBusy::SimdFloatDiv            0      0.00%     55.03% # attempts to use FU when none available (Count)
system.bigCluster.cpus.statFuBusy::SimdFloatMisc            0      0.00%     55.03% # attempts to use FU when none available (Count)
system.bigCluster.cpus.statFuBusy::SimdFloatMult            0      0.00%     55.03% # attempts to use FU when none available (Count)
system.bigCluster.cpus.statFuBusy::SimdFloatMultAcc            0      0.00%     55.03% # attempts to use FU when none available (Count)
system.bigCluster.cpus.statFuBusy::SimdFloatSqrt            0      0.00%     55.03% # attempts to use FU when none available (Count)
system.bigCluster.cpus.statFuBusy::SimdReduceAdd            0      0.00%     55.03% # attempts to use FU when none available (Count)
system.bigCluster.cpus.statFuBusy::SimdReduceAlu            0      0.00%     55.03% # attempts to use FU when none available (Count)
system.bigCluster.cpus.statFuBusy::SimdReduceCmp            0      0.00%     55.03% # attempts to use FU when none available (Count)
system.bigCluster.cpus.statFuBusy::SimdFloatReduceAdd            0      0.00%     55.03% # attempts to use FU when none available (Count)
system.bigCluster.cpus.statFuBusy::SimdFloatReduceCmp            0      0.00%     55.03% # attempts to use FU when none available (Count)
system.bigCluster.cpus.statFuBusy::SimdAes            0      0.00%     55.03% # attempts to use FU when none available (Count)
system.bigCluster.cpus.statFuBusy::SimdAesMix            0      0.00%     55.03% # attempts to use FU when none available (Count)
system.bigCluster.cpus.statFuBusy::SimdSha1Hash            0      0.00%     55.03% # attempts to use FU when none available (Count)
system.bigCluster.cpus.statFuBusy::SimdSha1Hash2            0      0.00%     55.03% # attempts to use FU when none available (Count)
system.bigCluster.cpus.statFuBusy::SimdSha256Hash            0      0.00%     55.03% # attempts to use FU when none available (Count)
system.bigCluster.cpus.statFuBusy::SimdSha256Hash2            0      0.00%     55.03% # attempts to use FU when none available (Count)
system.bigCluster.cpus.statFuBusy::SimdShaSigma2            0      0.00%     55.03% # attempts to use FU when none available (Count)
system.bigCluster.cpus.statFuBusy::SimdShaSigma3            0      0.00%     55.03% # attempts to use FU when none available (Count)
system.bigCluster.cpus.statFuBusy::SimdPredAlu            0      0.00%     55.03% # attempts to use FU when none available (Count)
system.bigCluster.cpus.statFuBusy::MemRead       700904      9.54%     64.57% # attempts to use FU when none available (Count)
system.bigCluster.cpus.statFuBusy::MemWrite      2601661     35.43%    100.00% # attempts to use FU when none available (Count)
system.bigCluster.cpus.statFuBusy::FloatMemRead            0      0.00%    100.00% # attempts to use FU when none available (Count)
system.bigCluster.cpus.statFuBusy::FloatMemWrite            0      0.00%    100.00% # attempts to use FU when none available (Count)
system.bigCluster.cpus.statFuBusy::IprAccess            0      0.00%    100.00% # attempts to use FU when none available (Count)
system.bigCluster.cpus.statFuBusy::InstPrefetch            0      0.00%    100.00% # attempts to use FU when none available (Count)
system.bigCluster.cpus.statIssuedInstType_0::No_OpClass            0      0.00%      0.00% # Number of instructions issued per FU type, per thread (Count)
system.bigCluster.cpus.statIssuedInstType_0::IntAlu     14962199     69.46%     69.46% # Number of instructions issued per FU type, per thread (Count)
system.bigCluster.cpus.statIssuedInstType_0::IntMult       300210      1.39%     70.85% # Number of instructions issued per FU type, per thread (Count)
system.bigCluster.cpus.statIssuedInstType_0::IntDiv           15      0.00%     70.85% # Number of instructions issued per FU type, per thread (Count)
system.bigCluster.cpus.statIssuedInstType_0::FloatAdd            0      0.00%     70.85% # Number of instructions issued per FU type, per thread (Count)
system.bigCluster.cpus.statIssuedInstType_0::FloatCmp            0      0.00%     70.85% # Number of instructions issued per FU type, per thread (Count)
system.bigCluster.cpus.statIssuedInstType_0::FloatCvt            0      0.00%     70.85% # Number of instructions issued per FU type, per thread (Count)
system.bigCluster.cpus.statIssuedInstType_0::FloatMult            0      0.00%     70.85% # Number of instructions issued per FU type, per thread (Count)
system.bigCluster.cpus.statIssuedInstType_0::FloatMultAcc            0      0.00%     70.85% # Number of instructions issued per FU type, per thread (Count)
system.bigCluster.cpus.statIssuedInstType_0::FloatDiv            0      0.00%     70.85% # Number of instructions issued per FU type, per thread (Count)
system.bigCluster.cpus.statIssuedInstType_0::FloatMisc            0      0.00%     70.85% # Number of instructions issued per FU type, per thread (Count)
system.bigCluster.cpus.statIssuedInstType_0::FloatSqrt            0      0.00%     70.85% # Number of instructions issued per FU type, per thread (Count)
system.bigCluster.cpus.statIssuedInstType_0::SimdAdd            0      0.00%     70.85% # Number of instructions issued per FU type, per thread (Count)
system.bigCluster.cpus.statIssuedInstType_0::SimdAddAcc            0      0.00%     70.85% # Number of instructions issued per FU type, per thread (Count)
system.bigCluster.cpus.statIssuedInstType_0::SimdAlu            0      0.00%     70.85% # Number of instructions issued per FU type, per thread (Count)
system.bigCluster.cpus.statIssuedInstType_0::SimdCmp            0      0.00%     70.85% # Number of instructions issued per FU type, per thread (Count)
system.bigCluster.cpus.statIssuedInstType_0::SimdCvt            0      0.00%     70.85% # Number of instructions issued per FU type, per thread (Count)
system.bigCluster.cpus.statIssuedInstType_0::SimdMisc            0      0.00%     70.85% # Number of instructions issued per FU type, per thread (Count)
system.bigCluster.cpus.statIssuedInstType_0::SimdMult            0      0.00%     70.85% # Number of instructions issued per FU type, per thread (Count)
system.bigCluster.cpus.statIssuedInstType_0::SimdMultAcc            0      0.00%     70.85% # Number of instructions issued per FU type, per thread (Count)
system.bigCluster.cpus.statIssuedInstType_0::SimdShift            0      0.00%     70.85% # Number of instructions issued per FU type, per thread (Count)
system.bigCluster.cpus.statIssuedInstType_0::SimdShiftAcc            0      0.00%     70.85% # Number of instructions issued per FU type, per thread (Count)
system.bigCluster.cpus.statIssuedInstType_0::SimdDiv            0      0.00%     70.85% # Number of instructions issued per FU type, per thread (Count)
system.bigCluster.cpus.statIssuedInstType_0::SimdSqrt            0      0.00%     70.85% # Number of instructions issued per FU type, per thread (Count)
system.bigCluster.cpus.statIssuedInstType_0::SimdFloatAdd            0      0.00%     70.85% # Number of instructions issued per FU type, per thread (Count)
system.bigCluster.cpus.statIssuedInstType_0::SimdFloatAlu            0      0.00%     70.85% # Number of instructions issued per FU type, per thread (Count)
system.bigCluster.cpus.statIssuedInstType_0::SimdFloatCmp            0      0.00%     70.85% # Number of instructions issued per FU type, per thread (Count)
system.bigCluster.cpus.statIssuedInstType_0::SimdFloatCvt            0      0.00%     70.85% # Number of instructions issued per FU type, per thread (Count)
system.bigCluster.cpus.statIssuedInstType_0::SimdFloatDiv            0      0.00%     70.85% # Number of instructions issued per FU type, per thread (Count)
system.bigCluster.cpus.statIssuedInstType_0::SimdFloatMisc            0      0.00%     70.85% # Number of instructions issued per FU type, per thread (Count)
system.bigCluster.cpus.statIssuedInstType_0::SimdFloatMult            0      0.00%     70.85% # Number of instructions issued per FU type, per thread (Count)
system.bigCluster.cpus.statIssuedInstType_0::SimdFloatMultAcc            0      0.00%     70.85% # Number of instructions issued per FU type, per thread (Count)
system.bigCluster.cpus.statIssuedInstType_0::SimdFloatSqrt            0      0.00%     70.85% # Number of instructions issued per FU type, per thread (Count)
system.bigCluster.cpus.statIssuedInstType_0::SimdReduceAdd            0      0.00%     70.85% # Number of instructions issued per FU type, per thread (Count)
system.bigCluster.cpus.statIssuedInstType_0::SimdReduceAlu            0      0.00%     70.85% # Number of instructions issued per FU type, per thread (Count)
system.bigCluster.cpus.statIssuedInstType_0::SimdReduceCmp            0      0.00%     70.85% # Number of instructions issued per FU type, per thread (Count)
system.bigCluster.cpus.statIssuedInstType_0::SimdFloatReduceAdd            0      0.00%     70.85% # Number of instructions issued per FU type, per thread (Count)
system.bigCluster.cpus.statIssuedInstType_0::SimdFloatReduceCmp            0      0.00%     70.85% # Number of instructions issued per FU type, per thread (Count)
system.bigCluster.cpus.statIssuedInstType_0::SimdAes            0      0.00%     70.85% # Number of instructions issued per FU type, per thread (Count)
system.bigCluster.cpus.statIssuedInstType_0::SimdAesMix            0      0.00%     70.85% # Number of instructions issued per FU type, per thread (Count)
system.bigCluster.cpus.statIssuedInstType_0::SimdSha1Hash            0      0.00%     70.85% # Number of instructions issued per FU type, per thread (Count)
system.bigCluster.cpus.statIssuedInstType_0::SimdSha1Hash2            0      0.00%     70.85% # Number of instructions issued per FU type, per thread (Count)
system.bigCluster.cpus.statIssuedInstType_0::SimdSha256Hash            0      0.00%     70.85% # Number of instructions issued per FU type, per thread (Count)
system.bigCluster.cpus.statIssuedInstType_0::SimdSha256Hash2            0      0.00%     70.85% # Number of instructions issued per FU type, per thread (Count)
system.bigCluster.cpus.statIssuedInstType_0::SimdShaSigma2            0      0.00%     70.85% # Number of instructions issued per FU type, per thread (Count)
system.bigCluster.cpus.statIssuedInstType_0::SimdShaSigma3            0      0.00%     70.85% # Number of instructions issued per FU type, per thread (Count)
system.bigCluster.cpus.statIssuedInstType_0::SimdPredAlu            0      0.00%     70.85% # Number of instructions issued per FU type, per thread (Count)
system.bigCluster.cpus.statIssuedInstType_0::MemRead      2273054     10.55%     81.40% # Number of instructions issued per FU type, per thread (Count)
system.bigCluster.cpus.statIssuedInstType_0::MemWrite      4005906     18.60%    100.00% # Number of instructions issued per FU type, per thread (Count)
system.bigCluster.cpus.statIssuedInstType_0::FloatMemRead            0      0.00%    100.00% # Number of instructions issued per FU type, per thread (Count)
system.bigCluster.cpus.statIssuedInstType_0::FloatMemWrite            0      0.00%    100.00% # Number of instructions issued per FU type, per thread (Count)
system.bigCluster.cpus.statIssuedInstType_0::IprAccess            0      0.00%    100.00% # Number of instructions issued per FU type, per thread (Count)
system.bigCluster.cpus.statIssuedInstType_0::InstPrefetch            0      0.00%    100.00% # Number of instructions issued per FU type, per thread (Count)
system.bigCluster.cpus.statIssuedInstType_0::total     21541384                       # Number of instructions issued per FU type, per thread (Count)
system.bigCluster.cpus.issueRate             0.850202                       # Inst issue rate ((Count/Cycle))
system.bigCluster.cpus.fuBusy                 7344013                       # FU busy when requested (Count)
system.bigCluster.cpus.fuBusyRate            0.340926                       # FU busy rate (busy events/executed inst) ((Count/Count))
system.bigCluster.cpus.intInstQueueReads     75547501                       # Number of integer instruction queue reads (Count)
system.bigCluster.cpus.intInstQueueWrites     21669336                       # Number of integer instruction queue writes (Count)
system.bigCluster.cpus.intInstQueueWakeupAccesses     21519220                       # Number of integer instruction queue wakeup accesses (Count)
system.bigCluster.cpus.fpInstQueueReads             0                       # Number of floating instruction queue reads (Count)
system.bigCluster.cpus.fpInstQueueWrites            0                       # Number of floating instruction queue writes (Count)
system.bigCluster.cpus.fpInstQueueWakeupAccesses            0                       # Number of floating instruction queue wakeup accesses (Count)
system.bigCluster.cpus.vecInstQueueReads            0                       # Number of vector instruction queue reads (Count)
system.bigCluster.cpus.vecInstQueueWrites            0                       # Number of vector instruction queue writes (Count)
system.bigCluster.cpus.vecInstQueueWakeupAccesses            0                       # Number of vector instruction queue wakeup accesses (Count)
system.bigCluster.cpus.intAluAccesses        28885397                       # Number of integer alu accesses (Count)
system.bigCluster.cpus.fpAluAccesses                0                       # Number of floating point alu accesses (Count)
system.bigCluster.cpus.vecAluAccesses               0                       # Number of vector alu accesses (Count)
system.bigCluster.cpus.numInsts              21524843                       # Number of executed instructions (Count)
system.bigCluster.cpus.numLoadInsts           2268925                       # Number of load instructions executed (Count)
system.bigCluster.cpus.numSquashedInsts         15749                       # Number of squashed instructions skipped in execute (Count)
system.bigCluster.cpus.numSwp                       0                       # Number of swp insts executed (Count)
system.bigCluster.cpus.numNop                    1543                       # Number of nop insts executed (Count)
system.bigCluster.cpus.numRefs                6273493                       # Number of memory reference insts executed (Count)
system.bigCluster.cpus.numBranches            4533393                       # Number of branches executed (Count)
system.bigCluster.cpus.numStoreInsts          4004568                       # Number of stores executed (Count)
system.bigCluster.cpus.numRate               0.849549                       # Inst execution rate ((Count/Cycle))
system.bigCluster.cpus.timesIdled                3878                       # Number of times that the entire CPU went into an idle state and unscheduled itself (Count)
system.bigCluster.cpus.idleCycles              222989                       # Total number of cycles that the CPU has spent unscheduled due to idling (Cycle)
system.bigCluster.cpus.committedInsts        18405415                       # Number of Instructions Simulated (Count)
system.bigCluster.cpus.committedOps          21482655                       # Number of Ops (including micro ops) Simulated (Count)
system.bigCluster.cpus.cpi                   1.376594                       # CPI: Cycles Per Instruction ((Cycle/Count))
system.bigCluster.cpus.totalCpi              1.376594                       # CPI: Total CPI of All Threads ((Cycle/Count))
system.bigCluster.cpus.ipc                   0.726431                       # IPC: Instructions Per Cycle ((Count/Cycle))
system.bigCluster.cpus.totalIpc              0.726431                       # IPC: Total IPC of All Threads ((Count/Cycle))
system.bigCluster.cpus.intRegfileReads       25635787                       # Number of integer regfile reads (Count)
system.bigCluster.cpus.intRegfileWrites      13921089                       # Number of integer regfile writes (Count)
system.bigCluster.cpus.ccRegfileReads         5144916                       # number of cc regfile reads (Count)
system.bigCluster.cpus.ccRegfileWrites        5143215                       # number of cc regfile writes (Count)
system.bigCluster.cpus.miscRegfileReads     146656700                       # number of misc regfile reads (Count)
system.bigCluster.cpus.miscRegfileWrites         4191                       # number of misc regfile writes (Count)
system.bigCluster.cpus.MemDepUnit__0.insertedLoads      2272936                       # Number of loads inserted to the mem dependence unit. (Count)
system.bigCluster.cpus.MemDepUnit__0.insertedStores      4008603                       # Number of stores inserted to the mem dependence unit. (Count)
system.bigCluster.cpus.MemDepUnit__0.conflictingLoads         2920                       # Number of conflicting loads. (Count)
system.bigCluster.cpus.MemDepUnit__0.conflictingStores          378                       # Number of conflicting stores. (Count)
system.bigCluster.cpus.MemDepUnit__1.insertedLoads            0                       # Number of loads inserted to the mem dependence unit. (Count)
system.bigCluster.cpus.MemDepUnit__1.insertedStores            0                       # Number of stores inserted to the mem dependence unit. (Count)
system.bigCluster.cpus.MemDepUnit__1.conflictingLoads            0                       # Number of conflicting loads. (Count)
system.bigCluster.cpus.MemDepUnit__1.conflictingStores            0                       # Number of conflicting stores. (Count)
system.bigCluster.cpus.MemDepUnit__2.insertedLoads            0                       # Number of loads inserted to the mem dependence unit. (Count)
system.bigCluster.cpus.MemDepUnit__2.insertedStores            0                       # Number of stores inserted to the mem dependence unit. (Count)
system.bigCluster.cpus.MemDepUnit__2.conflictingLoads            0                       # Number of conflicting loads. (Count)
system.bigCluster.cpus.MemDepUnit__2.conflictingStores            0                       # Number of conflicting stores. (Count)
system.bigCluster.cpus.MemDepUnit__3.insertedLoads            0                       # Number of loads inserted to the mem dependence unit. (Count)
system.bigCluster.cpus.MemDepUnit__3.insertedStores            0                       # Number of stores inserted to the mem dependence unit. (Count)
system.bigCluster.cpus.MemDepUnit__3.conflictingLoads            0                       # Number of conflicting loads. (Count)
system.bigCluster.cpus.MemDepUnit__3.conflictingStores            0                       # Number of conflicting stores. (Count)
system.bigCluster.cpus.branchPred.lookups      4579952                       # Number of BP lookups (Count)
system.bigCluster.cpus.branchPred.condPredicted      2379028                       # Number of conditional branches predicted (Count)
system.bigCluster.cpus.branchPred.condIncorrect        10645                       # Number of conditional branches incorrect (Count)
system.bigCluster.cpus.branchPred.BTBLookups      3144906                       # Number of BTB lookups (Count)
system.bigCluster.cpus.branchPred.BTBHits      3141066                       # Number of BTB hits (Count)
system.bigCluster.cpus.branchPred.BTBHitRatio     0.998779                       # BTB Hit Ratio (Ratio)
system.bigCluster.cpus.branchPred.RASUsed       642739                       # Number of times the RAS was used to get a target. (Count)
system.bigCluster.cpus.branchPred.RASIncorrect            4                       # Number of incorrect RAS predictions. (Count)
system.bigCluster.cpus.branchPred.indirectLookups          968                       # Number of indirect predictor lookups. (Count)
system.bigCluster.cpus.branchPred.indirectHits          799                       # Number of indirect target hits. (Count)
system.bigCluster.cpus.branchPred.indirectMisses          169                       # Number of indirect misses. (Count)
system.bigCluster.cpus.branchPred.indirectMispredicted           75                       # Number of mispredicted indirect branches. (Count)
system.bigCluster.cpus.commit.commitSquashedInsts        77568                       # The number of squashed insts skipped by commit (Count)
system.bigCluster.cpus.commit.commitNonSpecStalls         8015                       # The number of times commit has been forced to stall to communicate backwards (Count)
system.bigCluster.cpus.commit.branchMispredicts         9304                       # The number of times a branch was mispredicted (Count)
system.bigCluster.cpus.commit.numCommittedDist::samples     25099157                       # Number of insts commited each cycle (Count)
system.bigCluster.cpus.commit.numCommittedDist::mean     0.855970                       # Number of insts commited each cycle (Count)
system.bigCluster.cpus.commit.numCommittedDist::stdev     1.651099                       # Number of insts commited each cycle (Count)
system.bigCluster.cpus.commit.numCommittedDist::underflows            0      0.00%      0.00% # Number of insts commited each cycle (Count)
system.bigCluster.cpus.commit.numCommittedDist::0     16068312     64.02%     64.02% # Number of insts commited each cycle (Count)
system.bigCluster.cpus.commit.numCommittedDist::1      4772673     19.02%     83.03% # Number of insts commited each cycle (Count)
system.bigCluster.cpus.commit.numCommittedDist::2      1433021      5.71%     88.74% # Number of insts commited each cycle (Count)
system.bigCluster.cpus.commit.numCommittedDist::3       604216      2.41%     91.15% # Number of insts commited each cycle (Count)
system.bigCluster.cpus.commit.numCommittedDist::4      1046016      4.17%     95.32% # Number of insts commited each cycle (Count)
system.bigCluster.cpus.commit.numCommittedDist::5       268645      1.07%     96.39% # Number of insts commited each cycle (Count)
system.bigCluster.cpus.commit.numCommittedDist::6       293765      1.17%     97.56% # Number of insts commited each cycle (Count)
system.bigCluster.cpus.commit.numCommittedDist::7       157197      0.63%     98.19% # Number of insts commited each cycle (Count)
system.bigCluster.cpus.commit.numCommittedDist::8       455312      1.81%    100.00% # Number of insts commited each cycle (Count)
system.bigCluster.cpus.commit.numCommittedDist::overflows            0      0.00%    100.00% # Number of insts commited each cycle (Count)
system.bigCluster.cpus.commit.numCommittedDist::min_value            0                       # Number of insts commited each cycle (Count)
system.bigCluster.cpus.commit.numCommittedDist::max_value            8                       # Number of insts commited each cycle (Count)
system.bigCluster.cpus.commit.numCommittedDist::total     25099157                       # Number of insts commited each cycle (Count)
system.bigCluster.cpus.commit.instsCommitted     18406877                       # Number of instructions committed (Count)
system.bigCluster.cpus.commit.opsCommitted     21484117                       # Number of ops (including micro ops) committed (Count)
system.bigCluster.cpus.commit.memRefs         6264602                       # Number of memory references committed (Count)
system.bigCluster.cpus.commit.loads           2261059                       # Number of loads committed (Count)
system.bigCluster.cpus.commit.amos                  0                       # Number of atomic instructions committed (Count)
system.bigCluster.cpus.commit.membars            7483                       # Number of memory barriers committed (Count)
system.bigCluster.cpus.commit.branches        4525044                       # Number of branches committed (Count)
system.bigCluster.cpus.commit.vectorInstructions            0                       # Number of committed Vector instructions. (Count)
system.bigCluster.cpus.commit.floating              0                       # Number of committed floating point instructions. (Count)
system.bigCluster.cpus.commit.integer        18877206                       # Number of committed integer instructions. (Count)
system.bigCluster.cpus.commit.functionCalls       636949                       # Number of function calls committed. (Count)
system.bigCluster.cpus.commit.committedInstType_0::No_OpClass            0      0.00%      0.00% # Class of committed instruction (Count)
system.bigCluster.cpus.commit.committedInstType_0::IntAlu     14919351     69.44%     69.44% # Class of committed instruction (Count)
system.bigCluster.cpus.commit.committedInstType_0::IntMult       300164      1.40%     70.84% # Class of committed instruction (Count)
system.bigCluster.cpus.commit.committedInstType_0::IntDiv            0      0.00%     70.84% # Class of committed instruction (Count)
system.bigCluster.cpus.commit.committedInstType_0::FloatAdd            0      0.00%     70.84% # Class of committed instruction (Count)
system.bigCluster.cpus.commit.committedInstType_0::FloatCmp            0      0.00%     70.84% # Class of committed instruction (Count)
system.bigCluster.cpus.commit.committedInstType_0::FloatCvt            0      0.00%     70.84% # Class of committed instruction (Count)
system.bigCluster.cpus.commit.committedInstType_0::FloatMult            0      0.00%     70.84% # Class of committed instruction (Count)
system.bigCluster.cpus.commit.committedInstType_0::FloatMultAcc            0      0.00%     70.84% # Class of committed instruction (Count)
system.bigCluster.cpus.commit.committedInstType_0::FloatDiv            0      0.00%     70.84% # Class of committed instruction (Count)
system.bigCluster.cpus.commit.committedInstType_0::FloatMisc            0      0.00%     70.84% # Class of committed instruction (Count)
system.bigCluster.cpus.commit.committedInstType_0::FloatSqrt            0      0.00%     70.84% # Class of committed instruction (Count)
system.bigCluster.cpus.commit.committedInstType_0::SimdAdd            0      0.00%     70.84% # Class of committed instruction (Count)
system.bigCluster.cpus.commit.committedInstType_0::SimdAddAcc            0      0.00%     70.84% # Class of committed instruction (Count)
system.bigCluster.cpus.commit.committedInstType_0::SimdAlu            0      0.00%     70.84% # Class of committed instruction (Count)
system.bigCluster.cpus.commit.committedInstType_0::SimdCmp            0      0.00%     70.84% # Class of committed instruction (Count)
system.bigCluster.cpus.commit.committedInstType_0::SimdCvt            0      0.00%     70.84% # Class of committed instruction (Count)
system.bigCluster.cpus.commit.committedInstType_0::SimdMisc            0      0.00%     70.84% # Class of committed instruction (Count)
system.bigCluster.cpus.commit.committedInstType_0::SimdMult            0      0.00%     70.84% # Class of committed instruction (Count)
system.bigCluster.cpus.commit.committedInstType_0::SimdMultAcc            0      0.00%     70.84% # Class of committed instruction (Count)
system.bigCluster.cpus.commit.committedInstType_0::SimdShift            0      0.00%     70.84% # Class of committed instruction (Count)
system.bigCluster.cpus.commit.committedInstType_0::SimdShiftAcc            0      0.00%     70.84% # Class of committed instruction (Count)
system.bigCluster.cpus.commit.committedInstType_0::SimdDiv            0      0.00%     70.84% # Class of committed instruction (Count)
system.bigCluster.cpus.commit.committedInstType_0::SimdSqrt            0      0.00%     70.84% # Class of committed instruction (Count)
system.bigCluster.cpus.commit.committedInstType_0::SimdFloatAdd            0      0.00%     70.84% # Class of committed instruction (Count)
system.bigCluster.cpus.commit.committedInstType_0::SimdFloatAlu            0      0.00%     70.84% # Class of committed instruction (Count)
system.bigCluster.cpus.commit.committedInstType_0::SimdFloatCmp            0      0.00%     70.84% # Class of committed instruction (Count)
system.bigCluster.cpus.commit.committedInstType_0::SimdFloatCvt            0      0.00%     70.84% # Class of committed instruction (Count)
system.bigCluster.cpus.commit.committedInstType_0::SimdFloatDiv            0      0.00%     70.84% # Class of committed instruction (Count)
system.bigCluster.cpus.commit.committedInstType_0::SimdFloatMisc            0      0.00%     70.84% # Class of committed instruction (Count)
system.bigCluster.cpus.commit.committedInstType_0::SimdFloatMult            0      0.00%     70.84% # Class of committed instruction (Count)
system.bigCluster.cpus.commit.committedInstType_0::SimdFloatMultAcc            0      0.00%     70.84% # Class of committed instruction (Count)
system.bigCluster.cpus.commit.committedInstType_0::SimdFloatSqrt            0      0.00%     70.84% # Class of committed instruction (Count)
system.bigCluster.cpus.commit.committedInstType_0::SimdReduceAdd            0      0.00%     70.84% # Class of committed instruction (Count)
system.bigCluster.cpus.commit.committedInstType_0::SimdReduceAlu            0      0.00%     70.84% # Class of committed instruction (Count)
system.bigCluster.cpus.commit.committedInstType_0::SimdReduceCmp            0      0.00%     70.84% # Class of committed instruction (Count)
system.bigCluster.cpus.commit.committedInstType_0::SimdFloatReduceAdd            0      0.00%     70.84% # Class of committed instruction (Count)
system.bigCluster.cpus.commit.committedInstType_0::SimdFloatReduceCmp            0      0.00%     70.84% # Class of committed instruction (Count)
system.bigCluster.cpus.commit.committedInstType_0::SimdAes            0      0.00%     70.84% # Class of committed instruction (Count)
system.bigCluster.cpus.commit.committedInstType_0::SimdAesMix            0      0.00%     70.84% # Class of committed instruction (Count)
system.bigCluster.cpus.commit.committedInstType_0::SimdSha1Hash            0      0.00%     70.84% # Class of committed instruction (Count)
system.bigCluster.cpus.commit.committedInstType_0::SimdSha1Hash2            0      0.00%     70.84% # Class of committed instruction (Count)
system.bigCluster.cpus.commit.committedInstType_0::SimdSha256Hash            0      0.00%     70.84% # Class of committed instruction (Count)
system.bigCluster.cpus.commit.committedInstType_0::SimdSha256Hash2            0      0.00%     70.84% # Class of committed instruction (Count)
system.bigCluster.cpus.commit.committedInstType_0::SimdShaSigma2            0      0.00%     70.84% # Class of committed instruction (Count)
system.bigCluster.cpus.commit.committedInstType_0::SimdShaSigma3            0      0.00%     70.84% # Class of committed instruction (Count)
system.bigCluster.cpus.commit.committedInstType_0::SimdPredAlu            0      0.00%     70.84% # Class of committed instruction (Count)
system.bigCluster.cpus.commit.committedInstType_0::MemRead      2261059     10.52%     81.37% # Class of committed instruction (Count)
system.bigCluster.cpus.commit.committedInstType_0::MemWrite      4003543     18.63%    100.00% # Class of committed instruction (Count)
system.bigCluster.cpus.commit.committedInstType_0::FloatMemRead            0      0.00%    100.00% # Class of committed instruction (Count)
system.bigCluster.cpus.commit.committedInstType_0::FloatMemWrite            0      0.00%    100.00% # Class of committed instruction (Count)
system.bigCluster.cpus.commit.committedInstType_0::IprAccess            0      0.00%    100.00% # Class of committed instruction (Count)
system.bigCluster.cpus.commit.committedInstType_0::InstPrefetch            0      0.00%    100.00% # Class of committed instruction (Count)
system.bigCluster.cpus.commit.committedInstType_0::total     21484117                       # Class of committed instruction (Count)
system.bigCluster.cpus.commit.commitEligibleSamples       455312                       # number cycles where commit BW limit reached (Cycle)
system.bigCluster.cpus.dcache.demandHits::bigCluster.cpus.data      2919358                       # number of demand (read+write) hits (Count)
system.bigCluster.cpus.dcache.demandHits::total      2919358                       # number of demand (read+write) hits (Count)
system.bigCluster.cpus.dcache.overallHits::bigCluster.cpus.data      2919603                       # number of overall hits (Count)
system.bigCluster.cpus.dcache.overallHits::total      2919603                       # number of overall hits (Count)
system.bigCluster.cpus.dcache.demandMisses::bigCluster.cpus.data      3338881                       # number of demand (read+write) misses (Count)
system.bigCluster.cpus.dcache.demandMisses::total      3338881                       # number of demand (read+write) misses (Count)
system.bigCluster.cpus.dcache.overallMisses::bigCluster.cpus.data      3339476                       # number of overall misses (Count)
system.bigCluster.cpus.dcache.overallMisses::total      3339476                       # number of overall misses (Count)
system.bigCluster.cpus.dcache.demandMissLatency::bigCluster.cpus.data 120692220000                       # number of demand (read+write) miss ticks (Tick)
system.bigCluster.cpus.dcache.demandMissLatency::total 120692220000                       # number of demand (read+write) miss ticks (Tick)
system.bigCluster.cpus.dcache.overallMissLatency::bigCluster.cpus.data 120692220000                       # number of overall miss ticks (Tick)
system.bigCluster.cpus.dcache.overallMissLatency::total 120692220000                       # number of overall miss ticks (Tick)
system.bigCluster.cpus.dcache.demandAccesses::bigCluster.cpus.data      6258239                       # number of demand (read+write) accesses (Count)
system.bigCluster.cpus.dcache.demandAccesses::total      6258239                       # number of demand (read+write) accesses (Count)
system.bigCluster.cpus.dcache.overallAccesses::bigCluster.cpus.data      6259079                       # number of overall (read+write) accesses (Count)
system.bigCluster.cpus.dcache.overallAccesses::total      6259079                       # number of overall (read+write) accesses (Count)
system.bigCluster.cpus.dcache.demandMissRate::bigCluster.cpus.data     0.533518                       # miss rate for demand accesses (Ratio)
system.bigCluster.cpus.dcache.demandMissRate::total     0.533518                       # miss rate for demand accesses (Ratio)
system.bigCluster.cpus.dcache.overallMissRate::bigCluster.cpus.data     0.533541                       # miss rate for overall accesses (Ratio)
system.bigCluster.cpus.dcache.overallMissRate::total     0.533541                       # miss rate for overall accesses (Ratio)
system.bigCluster.cpus.dcache.demandAvgMissLatency::bigCluster.cpus.data 36147.505706                       # average overall miss latency ((Cycle/Count))
system.bigCluster.cpus.dcache.demandAvgMissLatency::total 36147.505706                       # average overall miss latency ((Cycle/Count))
system.bigCluster.cpus.dcache.overallAvgMissLatency::bigCluster.cpus.data 36141.065245                       # average overall miss latency ((Cycle/Count))
system.bigCluster.cpus.dcache.overallAvgMissLatency::total 36141.065245                       # average overall miss latency ((Cycle/Count))
system.bigCluster.cpus.dcache.blockedCycles::no_mshrs       194357                       # number of cycles access was blocked (Cycle)
system.bigCluster.cpus.dcache.blockedCycles::no_targets           13                       # number of cycles access was blocked (Cycle)
system.bigCluster.cpus.dcache.blockedCauses::no_mshrs         1856                       # number of times access was blocked (Count)
system.bigCluster.cpus.dcache.blockedCauses::no_targets            1                       # number of times access was blocked (Count)
system.bigCluster.cpus.dcache.avgBlocked::no_mshrs   104.718211                       # average number of cycles each access was blocked ((Cycle/Count))
system.bigCluster.cpus.dcache.avgBlocked::no_targets           13                       # average number of cycles each access was blocked ((Cycle/Count))
system.bigCluster.cpus.dcache.writebacks::writebacks       338239                       # number of writebacks (Count)
system.bigCluster.cpus.dcache.writebacks::total       338239                       # number of writebacks (Count)
system.bigCluster.cpus.dcache.demandMshrHits::bigCluster.cpus.data      2997591                       # number of demand (read+write) MSHR hits (Count)
system.bigCluster.cpus.dcache.demandMshrHits::total      2997591                       # number of demand (read+write) MSHR hits (Count)
system.bigCluster.cpus.dcache.overallMshrHits::bigCluster.cpus.data      2997591                       # number of overall MSHR hits (Count)
system.bigCluster.cpus.dcache.overallMshrHits::total      2997591                       # number of overall MSHR hits (Count)
system.bigCluster.cpus.dcache.demandMshrMisses::bigCluster.cpus.data       341290                       # number of demand (read+write) MSHR misses (Count)
system.bigCluster.cpus.dcache.demandMshrMisses::total       341290                       # number of demand (read+write) MSHR misses (Count)
system.bigCluster.cpus.dcache.overallMshrMisses::bigCluster.cpus.data       341300                       # number of overall MSHR misses (Count)
system.bigCluster.cpus.dcache.overallMshrMisses::total       341300                       # number of overall MSHR misses (Count)
system.bigCluster.cpus.dcache.overallMshrUncacheable::bigCluster.cpus.data         5202                       # number of overall MSHR uncacheable misses (Count)
system.bigCluster.cpus.dcache.overallMshrUncacheable::total         5202                       # number of overall MSHR uncacheable misses (Count)
system.bigCluster.cpus.dcache.demandMshrMissLatency::bigCluster.cpus.data  17855124000                       # number of demand (read+write) MSHR miss ticks (Tick)
system.bigCluster.cpus.dcache.demandMshrMissLatency::total  17855124000                       # number of demand (read+write) MSHR miss ticks (Tick)
system.bigCluster.cpus.dcache.overallMshrMissLatency::bigCluster.cpus.data  17855460500                       # number of overall MSHR miss ticks (Tick)
system.bigCluster.cpus.dcache.overallMshrMissLatency::total  17855460500                       # number of overall MSHR miss ticks (Tick)
system.bigCluster.cpus.dcache.overallMshrUncacheableLatency::bigCluster.cpus.data    319739000                       # number of overall MSHR uncacheable ticks (Tick)
system.bigCluster.cpus.dcache.overallMshrUncacheableLatency::total    319739000                       # number of overall MSHR uncacheable ticks (Tick)
system.bigCluster.cpus.dcache.demandMshrMissRate::bigCluster.cpus.data     0.054535                       # mshr miss ratio for demand accesses (Ratio)
system.bigCluster.cpus.dcache.demandMshrMissRate::total     0.054535                       # mshr miss ratio for demand accesses (Ratio)
system.bigCluster.cpus.dcache.overallMshrMissRate::bigCluster.cpus.data     0.054529                       # mshr miss ratio for overall accesses (Ratio)
system.bigCluster.cpus.dcache.overallMshrMissRate::total     0.054529                       # mshr miss ratio for overall accesses (Ratio)
system.bigCluster.cpus.dcache.demandAvgMshrMissLatency::bigCluster.cpus.data 52316.575346                       # average overall mshr miss latency ((Cycle/Count))
system.bigCluster.cpus.dcache.demandAvgMshrMissLatency::total 52316.575346                       # average overall mshr miss latency ((Cycle/Count))
system.bigCluster.cpus.dcache.overallAvgMshrMissLatency::bigCluster.cpus.data 52316.028421                       # average overall mshr miss latency ((Cycle/Count))
system.bigCluster.cpus.dcache.overallAvgMshrMissLatency::total 52316.028421                       # average overall mshr miss latency ((Cycle/Count))
system.bigCluster.cpus.dcache.overallAvgMshrUncacheableLatency::bigCluster.cpus.data 61464.628989                       # average overall mshr uncacheable latency ((Cycle/Count))
system.bigCluster.cpus.dcache.overallAvgMshrUncacheableLatency::total 61464.628989                       # average overall mshr uncacheable latency ((Cycle/Count))
system.bigCluster.cpus.dcache.replacements       340571                       # number of replacements (Count)
system.bigCluster.cpus.dcache.CleanInvalidReq.mshrMisses::bigCluster.cpus.data            1                       # number of CleanInvalidReq MSHR misses (Count)
system.bigCluster.cpus.dcache.CleanInvalidReq.mshrMisses::total            1                       # number of CleanInvalidReq MSHR misses (Count)
system.bigCluster.cpus.dcache.CleanInvalidReq.mshrMissLatency::bigCluster.cpus.data        18500                       # number of CleanInvalidReq MSHR miss ticks (Tick)
system.bigCluster.cpus.dcache.CleanInvalidReq.mshrMissLatency::total        18500                       # number of CleanInvalidReq MSHR miss ticks (Tick)
system.bigCluster.cpus.dcache.CleanInvalidReq.mshrMissRate::bigCluster.cpus.data          inf                       # mshr miss rate for CleanInvalidReq accesses (Ratio)
system.bigCluster.cpus.dcache.CleanInvalidReq.mshrMissRate::total          inf                       # mshr miss rate for CleanInvalidReq accesses (Ratio)
system.bigCluster.cpus.dcache.CleanInvalidReq.avgMshrMissLatency::bigCluster.cpus.data        18500                       # average CleanInvalidReq mshr miss latency ((Tick/Count))
system.bigCluster.cpus.dcache.CleanInvalidReq.avgMshrMissLatency::total        18500                       # average CleanInvalidReq mshr miss latency ((Tick/Count))
system.bigCluster.cpus.dcache.InvalidateReq.mshrMisses::bigCluster.cpus.data          771                       # number of InvalidateReq MSHR misses (Count)
system.bigCluster.cpus.dcache.InvalidateReq.mshrMisses::total          771                       # number of InvalidateReq MSHR misses (Count)
system.bigCluster.cpus.dcache.InvalidateReq.mshrMissLatency::bigCluster.cpus.data     15034500                       # number of InvalidateReq MSHR miss ticks (Tick)
system.bigCluster.cpus.dcache.InvalidateReq.mshrMissLatency::total     15034500                       # number of InvalidateReq MSHR miss ticks (Tick)
system.bigCluster.cpus.dcache.InvalidateReq.mshrMissRate::bigCluster.cpus.data          inf                       # mshr miss rate for InvalidateReq accesses (Ratio)
system.bigCluster.cpus.dcache.InvalidateReq.mshrMissRate::total          inf                       # mshr miss rate for InvalidateReq accesses (Ratio)
system.bigCluster.cpus.dcache.InvalidateReq.avgMshrMissLatency::bigCluster.cpus.data        19500                       # average InvalidateReq mshr miss latency ((Tick/Count))
system.bigCluster.cpus.dcache.InvalidateReq.avgMshrMissLatency::total        19500                       # average InvalidateReq mshr miss latency ((Tick/Count))
system.bigCluster.cpus.dcache.LoadLockedReq.hits::bigCluster.cpus.data          367                       # number of LoadLockedReq hits (Count)
system.bigCluster.cpus.dcache.LoadLockedReq.hits::total          367                       # number of LoadLockedReq hits (Count)
system.bigCluster.cpus.dcache.LoadLockedReq.misses::bigCluster.cpus.data          596                       # number of LoadLockedReq misses (Count)
system.bigCluster.cpus.dcache.LoadLockedReq.misses::total          596                       # number of LoadLockedReq misses (Count)
system.bigCluster.cpus.dcache.LoadLockedReq.missLatency::bigCluster.cpus.data      4947500                       # number of LoadLockedReq miss ticks (Tick)
system.bigCluster.cpus.dcache.LoadLockedReq.missLatency::total      4947500                       # number of LoadLockedReq miss ticks (Tick)
system.bigCluster.cpus.dcache.LoadLockedReq.accesses::bigCluster.cpus.data          963                       # number of LoadLockedReq accesses(hits+misses) (Count)
system.bigCluster.cpus.dcache.LoadLockedReq.accesses::total          963                       # number of LoadLockedReq accesses(hits+misses) (Count)
system.bigCluster.cpus.dcache.LoadLockedReq.missRate::bigCluster.cpus.data     0.618899                       # miss rate for LoadLockedReq accesses (Ratio)
system.bigCluster.cpus.dcache.LoadLockedReq.missRate::total     0.618899                       # miss rate for LoadLockedReq accesses (Ratio)
system.bigCluster.cpus.dcache.LoadLockedReq.avgMissLatency::bigCluster.cpus.data  8301.174497                       # average LoadLockedReq miss latency ((Tick/Count))
system.bigCluster.cpus.dcache.LoadLockedReq.avgMissLatency::total  8301.174497                       # average LoadLockedReq miss latency ((Tick/Count))
system.bigCluster.cpus.dcache.LoadLockedReq.mshrHits::bigCluster.cpus.data          595                       # number of LoadLockedReq MSHR hits (Count)
system.bigCluster.cpus.dcache.LoadLockedReq.mshrHits::total          595                       # number of LoadLockedReq MSHR hits (Count)
system.bigCluster.cpus.dcache.LoadLockedReq.mshrMisses::bigCluster.cpus.data            1                       # number of LoadLockedReq MSHR misses (Count)
system.bigCluster.cpus.dcache.LoadLockedReq.mshrMisses::total            1                       # number of LoadLockedReq MSHR misses (Count)
system.bigCluster.cpus.dcache.LoadLockedReq.mshrMissLatency::bigCluster.cpus.data        51000                       # number of LoadLockedReq MSHR miss ticks (Tick)
system.bigCluster.cpus.dcache.LoadLockedReq.mshrMissLatency::total        51000                       # number of LoadLockedReq MSHR miss ticks (Tick)
system.bigCluster.cpus.dcache.LoadLockedReq.mshrMissRate::bigCluster.cpus.data     0.001038                       # mshr miss rate for LoadLockedReq accesses (Ratio)
system.bigCluster.cpus.dcache.LoadLockedReq.mshrMissRate::total     0.001038                       # mshr miss rate for LoadLockedReq accesses (Ratio)
system.bigCluster.cpus.dcache.LoadLockedReq.avgMshrMissLatency::bigCluster.cpus.data        51000                       # average LoadLockedReq mshr miss latency ((Tick/Count))
system.bigCluster.cpus.dcache.LoadLockedReq.avgMshrMissLatency::total        51000                       # average LoadLockedReq mshr miss latency ((Tick/Count))
system.bigCluster.cpus.dcache.ReadReq.hits::bigCluster.cpus.data      2255686                       # number of ReadReq hits (Count)
system.bigCluster.cpus.dcache.ReadReq.hits::total      2255686                       # number of ReadReq hits (Count)
system.bigCluster.cpus.dcache.ReadReq.misses::bigCluster.cpus.data         4442                       # number of ReadReq misses (Count)
system.bigCluster.cpus.dcache.ReadReq.misses::total         4442                       # number of ReadReq misses (Count)
system.bigCluster.cpus.dcache.ReadReq.missLatency::bigCluster.cpus.data    159253500                       # number of ReadReq miss ticks (Tick)
system.bigCluster.cpus.dcache.ReadReq.missLatency::total    159253500                       # number of ReadReq miss ticks (Tick)
system.bigCluster.cpus.dcache.ReadReq.accesses::bigCluster.cpus.data      2260128                       # number of ReadReq accesses(hits+misses) (Count)
system.bigCluster.cpus.dcache.ReadReq.accesses::total      2260128                       # number of ReadReq accesses(hits+misses) (Count)
system.bigCluster.cpus.dcache.ReadReq.missRate::bigCluster.cpus.data     0.001965                       # miss rate for ReadReq accesses (Ratio)
system.bigCluster.cpus.dcache.ReadReq.missRate::total     0.001965                       # miss rate for ReadReq accesses (Ratio)
system.bigCluster.cpus.dcache.ReadReq.avgMissLatency::bigCluster.cpus.data 35851.755966                       # average ReadReq miss latency ((Tick/Count))
system.bigCluster.cpus.dcache.ReadReq.avgMissLatency::total 35851.755966                       # average ReadReq miss latency ((Tick/Count))
system.bigCluster.cpus.dcache.ReadReq.mshrHits::bigCluster.cpus.data          750                       # number of ReadReq MSHR hits (Count)
system.bigCluster.cpus.dcache.ReadReq.mshrHits::total          750                       # number of ReadReq MSHR hits (Count)
system.bigCluster.cpus.dcache.ReadReq.mshrMisses::bigCluster.cpus.data         3692                       # number of ReadReq MSHR misses (Count)
system.bigCluster.cpus.dcache.ReadReq.mshrMisses::total         3692                       # number of ReadReq MSHR misses (Count)
system.bigCluster.cpus.dcache.ReadReq.mshrUncacheable::bigCluster.cpus.data         1410                       # number of ReadReq MSHR uncacheable (Count)
system.bigCluster.cpus.dcache.ReadReq.mshrUncacheable::total         1410                       # number of ReadReq MSHR uncacheable (Count)
system.bigCluster.cpus.dcache.ReadReq.mshrMissLatency::bigCluster.cpus.data    135059000                       # number of ReadReq MSHR miss ticks (Tick)
system.bigCluster.cpus.dcache.ReadReq.mshrMissLatency::total    135059000                       # number of ReadReq MSHR miss ticks (Tick)
system.bigCluster.cpus.dcache.ReadReq.mshrUncacheableLatency::bigCluster.cpus.data    319739000                       # number of ReadReq MSHR uncacheable ticks (Tick)
system.bigCluster.cpus.dcache.ReadReq.mshrUncacheableLatency::total    319739000                       # number of ReadReq MSHR uncacheable ticks (Tick)
system.bigCluster.cpus.dcache.ReadReq.mshrMissRate::bigCluster.cpus.data     0.001634                       # mshr miss rate for ReadReq accesses (Ratio)
system.bigCluster.cpus.dcache.ReadReq.mshrMissRate::total     0.001634                       # mshr miss rate for ReadReq accesses (Ratio)
system.bigCluster.cpus.dcache.ReadReq.avgMshrMissLatency::bigCluster.cpus.data 36581.527627                       # average ReadReq mshr miss latency ((Tick/Count))
system.bigCluster.cpus.dcache.ReadReq.avgMshrMissLatency::total 36581.527627                       # average ReadReq mshr miss latency ((Tick/Count))
system.bigCluster.cpus.dcache.ReadReq.avgMshrUncacheableLatency::bigCluster.cpus.data 226765.248227                       # average ReadReq mshr uncacheable latency ((Tick/Count))
system.bigCluster.cpus.dcache.ReadReq.avgMshrUncacheableLatency::total 226765.248227                       # average ReadReq mshr uncacheable latency ((Tick/Count))
system.bigCluster.cpus.dcache.SoftPFExReq.hits::bigCluster.cpus.data          245                       # number of SoftPFExReq hits (Count)
system.bigCluster.cpus.dcache.SoftPFExReq.hits::total          245                       # number of SoftPFExReq hits (Count)
system.bigCluster.cpus.dcache.SoftPFExReq.misses::bigCluster.cpus.data          595                       # number of SoftPFExReq misses (Count)
system.bigCluster.cpus.dcache.SoftPFExReq.misses::total          595                       # number of SoftPFExReq misses (Count)
system.bigCluster.cpus.dcache.SoftPFExReq.accesses::bigCluster.cpus.data          840                       # number of SoftPFExReq accesses(hits+misses) (Count)
system.bigCluster.cpus.dcache.SoftPFExReq.accesses::total          840                       # number of SoftPFExReq accesses(hits+misses) (Count)
system.bigCluster.cpus.dcache.SoftPFExReq.missRate::bigCluster.cpus.data     0.708333                       # miss rate for SoftPFExReq accesses (Ratio)
system.bigCluster.cpus.dcache.SoftPFExReq.missRate::total     0.708333                       # miss rate for SoftPFExReq accesses (Ratio)
system.bigCluster.cpus.dcache.SoftPFExReq.mshrMisses::bigCluster.cpus.data           10                       # number of SoftPFExReq MSHR misses (Count)
system.bigCluster.cpus.dcache.SoftPFExReq.mshrMisses::total           10                       # number of SoftPFExReq MSHR misses (Count)
system.bigCluster.cpus.dcache.SoftPFExReq.mshrMissLatency::bigCluster.cpus.data       336500                       # number of SoftPFExReq MSHR miss ticks (Tick)
system.bigCluster.cpus.dcache.SoftPFExReq.mshrMissLatency::total       336500                       # number of SoftPFExReq MSHR miss ticks (Tick)
system.bigCluster.cpus.dcache.SoftPFExReq.mshrMissRate::bigCluster.cpus.data     0.011905                       # mshr miss rate for SoftPFExReq accesses (Ratio)
system.bigCluster.cpus.dcache.SoftPFExReq.mshrMissRate::total     0.011905                       # mshr miss rate for SoftPFExReq accesses (Ratio)
system.bigCluster.cpus.dcache.SoftPFExReq.avgMshrMissLatency::bigCluster.cpus.data        33650                       # average SoftPFExReq mshr miss latency ((Tick/Count))
system.bigCluster.cpus.dcache.SoftPFExReq.avgMshrMissLatency::total        33650                       # average SoftPFExReq mshr miss latency ((Tick/Count))
system.bigCluster.cpus.dcache.StoreCondReq.hits::bigCluster.cpus.data          900                       # number of StoreCondReq hits (Count)
system.bigCluster.cpus.dcache.StoreCondReq.hits::total          900                       # number of StoreCondReq hits (Count)
system.bigCluster.cpus.dcache.StoreCondReq.accesses::bigCluster.cpus.data          900                       # number of StoreCondReq accesses(hits+misses) (Count)
system.bigCluster.cpus.dcache.StoreCondReq.accesses::total          900                       # number of StoreCondReq accesses(hits+misses) (Count)
system.bigCluster.cpus.dcache.WriteLineReq.hits::bigCluster.cpus.data          426                       # number of WriteLineReq hits (Count)
system.bigCluster.cpus.dcache.WriteLineReq.hits::total          426                       # number of WriteLineReq hits (Count)
system.bigCluster.cpus.dcache.WriteLineReq.misses::bigCluster.cpus.data        37508                       # number of WriteLineReq misses (Count)
system.bigCluster.cpus.dcache.WriteLineReq.misses::total        37508                       # number of WriteLineReq misses (Count)
system.bigCluster.cpus.dcache.WriteLineReq.missLatency::bigCluster.cpus.data   2220891000                       # number of WriteLineReq miss ticks (Tick)
system.bigCluster.cpus.dcache.WriteLineReq.missLatency::total   2220891000                       # number of WriteLineReq miss ticks (Tick)
system.bigCluster.cpus.dcache.WriteLineReq.accesses::bigCluster.cpus.data        37934                       # number of WriteLineReq accesses(hits+misses) (Count)
system.bigCluster.cpus.dcache.WriteLineReq.accesses::total        37934                       # number of WriteLineReq accesses(hits+misses) (Count)
system.bigCluster.cpus.dcache.WriteLineReq.missRate::bigCluster.cpus.data     0.988770                       # miss rate for WriteLineReq accesses (Ratio)
system.bigCluster.cpus.dcache.WriteLineReq.missRate::total     0.988770                       # miss rate for WriteLineReq accesses (Ratio)
system.bigCluster.cpus.dcache.WriteLineReq.avgMissLatency::bigCluster.cpus.data 59211.128293                       # average WriteLineReq miss latency ((Tick/Count))
system.bigCluster.cpus.dcache.WriteLineReq.avgMissLatency::total 59211.128293                       # average WriteLineReq miss latency ((Tick/Count))
system.bigCluster.cpus.dcache.WriteLineReq.mshrHits::bigCluster.cpus.data            1                       # number of WriteLineReq MSHR hits (Count)
system.bigCluster.cpus.dcache.WriteLineReq.mshrHits::total            1                       # number of WriteLineReq MSHR hits (Count)
system.bigCluster.cpus.dcache.WriteLineReq.mshrMisses::bigCluster.cpus.data        37507                       # number of WriteLineReq MSHR misses (Count)
system.bigCluster.cpus.dcache.WriteLineReq.mshrMisses::total        37507                       # number of WriteLineReq MSHR misses (Count)
system.bigCluster.cpus.dcache.WriteLineReq.mshrMissLatency::bigCluster.cpus.data   2202087500                       # number of WriteLineReq MSHR miss ticks (Tick)
system.bigCluster.cpus.dcache.WriteLineReq.mshrMissLatency::total   2202087500                       # number of WriteLineReq MSHR miss ticks (Tick)
system.bigCluster.cpus.dcache.WriteLineReq.mshrMissRate::bigCluster.cpus.data     0.988744                       # mshr miss rate for WriteLineReq accesses (Ratio)
system.bigCluster.cpus.dcache.WriteLineReq.mshrMissRate::total     0.988744                       # mshr miss rate for WriteLineReq accesses (Ratio)
system.bigCluster.cpus.dcache.WriteLineReq.avgMshrMissLatency::bigCluster.cpus.data 58711.373877                       # average WriteLineReq mshr miss latency ((Tick/Count))
system.bigCluster.cpus.dcache.WriteLineReq.avgMshrMissLatency::total 58711.373877                       # average WriteLineReq mshr miss latency ((Tick/Count))
system.bigCluster.cpus.dcache.WriteReq.hits::bigCluster.cpus.data       663246                       # number of WriteReq hits (Count)
system.bigCluster.cpus.dcache.WriteReq.hits::total       663246                       # number of WriteReq hits (Count)
system.bigCluster.cpus.dcache.WriteReq.misses::bigCluster.cpus.data      3296931                       # number of WriteReq misses (Count)
system.bigCluster.cpus.dcache.WriteReq.misses::total      3296931                       # number of WriteReq misses (Count)
system.bigCluster.cpus.dcache.WriteReq.missLatency::bigCluster.cpus.data 118312075500                       # number of WriteReq miss ticks (Tick)
system.bigCluster.cpus.dcache.WriteReq.missLatency::total 118312075500                       # number of WriteReq miss ticks (Tick)
system.bigCluster.cpus.dcache.WriteReq.accesses::bigCluster.cpus.data      3960177                       # number of WriteReq accesses(hits+misses) (Count)
system.bigCluster.cpus.dcache.WriteReq.accesses::total      3960177                       # number of WriteReq accesses(hits+misses) (Count)
system.bigCluster.cpus.dcache.WriteReq.missRate::bigCluster.cpus.data     0.832521                       # miss rate for WriteReq accesses (Ratio)
system.bigCluster.cpus.dcache.WriteReq.missRate::total     0.832521                       # miss rate for WriteReq accesses (Ratio)
system.bigCluster.cpus.dcache.WriteReq.avgMissLatency::bigCluster.cpus.data 35885.517622                       # average WriteReq miss latency ((Tick/Count))
system.bigCluster.cpus.dcache.WriteReq.avgMissLatency::total 35885.517622                       # average WriteReq miss latency ((Tick/Count))
system.bigCluster.cpus.dcache.WriteReq.mshrHits::bigCluster.cpus.data      2996840                       # number of WriteReq MSHR hits (Count)
system.bigCluster.cpus.dcache.WriteReq.mshrHits::total      2996840                       # number of WriteReq MSHR hits (Count)
system.bigCluster.cpus.dcache.WriteReq.mshrMisses::bigCluster.cpus.data       300091                       # number of WriteReq MSHR misses (Count)
system.bigCluster.cpus.dcache.WriteReq.mshrMisses::total       300091                       # number of WriteReq MSHR misses (Count)
system.bigCluster.cpus.dcache.WriteReq.mshrUncacheable::bigCluster.cpus.data         3792                       # number of WriteReq MSHR uncacheable (Count)
system.bigCluster.cpus.dcache.WriteReq.mshrUncacheable::total         3792                       # number of WriteReq MSHR uncacheable (Count)
system.bigCluster.cpus.dcache.WriteReq.mshrMissLatency::bigCluster.cpus.data  15517977500                       # number of WriteReq MSHR miss ticks (Tick)
system.bigCluster.cpus.dcache.WriteReq.mshrMissLatency::total  15517977500                       # number of WriteReq MSHR miss ticks (Tick)
system.bigCluster.cpus.dcache.WriteReq.mshrMissRate::bigCluster.cpus.data     0.075777                       # mshr miss rate for WriteReq accesses (Ratio)
system.bigCluster.cpus.dcache.WriteReq.mshrMissRate::total     0.075777                       # mshr miss rate for WriteReq accesses (Ratio)
system.bigCluster.cpus.dcache.WriteReq.avgMshrMissLatency::bigCluster.cpus.data 51710.906025                       # average WriteReq mshr miss latency ((Tick/Count))
system.bigCluster.cpus.dcache.WriteReq.avgMshrMissLatency::total 51710.906025                       # average WriteReq mshr miss latency ((Tick/Count))
system.bigCluster.cpus.dcache.power_state.pwrStateResidencyTicks::UNDEFINED  12668390500                       # Cumulative time (in ticks) in various power states (Tick)
system.bigCluster.cpus.dcache.tags.tagsInUse   506.826366                       # Average ticks per tags in use ((Tick/Count))
system.bigCluster.cpus.dcache.tags.totalRefs      3262177                       # Total number of references to valid blocks. (Count)
system.bigCluster.cpus.dcache.tags.sampledRefs       341083                       # Sample count of references to valid blocks. (Count)
system.bigCluster.cpus.dcache.tags.avgRefs     9.564174                       # Average number of references to valid blocks. ((Count/Count))
system.bigCluster.cpus.dcache.tags.warmupTick    127042500                       # The tick when the warmup percentage was hit. (Tick)
system.bigCluster.cpus.dcache.tags.occupancies::bigCluster.cpus.data   506.826366                       # Average occupied blocks per tick, per requestor ((Count/Tick))
system.bigCluster.cpus.dcache.tags.avgOccs::bigCluster.cpus.data     0.989895                       # Average percentage of cache occupancy ((Ratio/Tick))
system.bigCluster.cpus.dcache.tags.avgOccs::total     0.989895                       # Average percentage of cache occupancy ((Ratio/Tick))
system.bigCluster.cpus.dcache.tags.occupanciesTaskId::1024          512                       # Occupied blocks per task id (Count)
system.bigCluster.cpus.dcache.tags.ageTaskId_1024::0          265                       # Occupied blocks per task id, per block age (Count)
system.bigCluster.cpus.dcache.tags.ageTaskId_1024::1          241                       # Occupied blocks per task id, per block age (Count)
system.bigCluster.cpus.dcache.tags.ageTaskId_1024::4            6                       # Occupied blocks per task id, per block age (Count)
system.bigCluster.cpus.dcache.tags.ratioOccsTaskId::1024            1                       # Ratio of occupied blocks and all blocks, per task id (Ratio)
system.bigCluster.cpus.dcache.tags.tagAccesses     12864511                       # Number of tag accesses (Count)
system.bigCluster.cpus.dcache.tags.dataAccesses     12864511                       # Number of data accesses (Count)
system.bigCluster.cpus.dcache.tags.power_state.pwrStateResidencyTicks::UNDEFINED  12668390500                       # Cumulative time (in ticks) in various power states (Tick)
system.bigCluster.cpus.decode.idleCycles      1045435                       # Number of cycles decode is idle (Cycle)
system.bigCluster.cpus.decode.blockedCycles     16643835                       # Number of cycles decode is blocked (Cycle)
system.bigCluster.cpus.decode.runCycles       6166918                       # Number of cycles decode is running (Cycle)
system.bigCluster.cpus.decode.unblockCycles      1248036                       # Number of cycles decode is unblocking (Cycle)
system.bigCluster.cpus.decode.squashCycles         9569                       # Number of cycles decode is squashing (Cycle)
system.bigCluster.cpus.decode.branchResolved      3134454                       # Number of times decode resolved a branch (Count)
system.bigCluster.cpus.decode.branchMispred         1385                       # Number of times decode detected a branch misprediction (Count)
system.bigCluster.cpus.decode.decodedInsts     21627904                       # Number of instructions handled by decode (Count)
system.bigCluster.cpus.decode.squashedInsts        41373                       # Number of squashed instructions handled by decode (Count)
system.bigCluster.cpus.fetch.icacheStallCycles       103332                       # Number of cycles fetch is stalled on an Icache miss (Cycle)
system.bigCluster.cpus.fetch.insts           18635303                       # Number of instructions fetch has processed (Count)
system.bigCluster.cpus.fetch.branches         4579952                       # Number of branches that fetch encountered (Count)
system.bigCluster.cpus.fetch.predictedBranches      3784604                       # Number of branches that fetch has predicted taken (Count)
system.bigCluster.cpus.fetch.cycles          24997234                       # Number of cycles fetch has run and was not squashing or blocked (Cycle)
system.bigCluster.cpus.fetch.squashCycles        21820                       # Number of cycles fetch has spent squashing (Cycle)
system.bigCluster.cpus.fetch.tlbCycles           1440                       # Number of cycles fetch has spent waiting for tlb (Cycle)
system.bigCluster.cpus.fetch.miscStallCycles            1                       # Number of cycles fetch has spent waiting on interrupts, or bad addresses, or out of MSHRs (Cycle)
system.bigCluster.cpus.fetch.pendingTrapStallCycles            8                       # Number of stall cycles due to pending traps (Cycle)
system.bigCluster.cpus.fetch.pendingQuiesceStallCycles          857                       # Number of stall cycles due to pending quiesce instructions (Cycle)
system.bigCluster.cpus.fetch.icacheWaitRetryStallCycles           11                       # Number of stall cycles due to full MSHR (Cycle)
system.bigCluster.cpus.fetch.cacheLines       7452050                       # Number of cache lines fetched (Count)
system.bigCluster.cpus.fetch.icacheSquashes          663                       # Number of outstanding Icache misses that were squashed (Count)
system.bigCluster.cpus.fetch.tlbSquashes           16                       # Number of outstanding ITLB misses that were squashed (Count)
system.bigCluster.cpus.fetch.nisnDist::samples     25113793                       # Number of instructions fetched each cycle (Total) (Count)
system.bigCluster.cpus.fetch.nisnDist::mean     0.865483                       # Number of instructions fetched each cycle (Total) (Count)
system.bigCluster.cpus.fetch.nisnDist::stdev     1.166967                       # Number of instructions fetched each cycle (Total) (Count)
system.bigCluster.cpus.fetch.nisnDist::underflows            0      0.00%      0.00% # Number of instructions fetched each cycle (Total) (Count)
system.bigCluster.cpus.fetch.nisnDist::0     14875672     59.23%     59.23% # Number of instructions fetched each cycle (Total) (Count)
system.bigCluster.cpus.fetch.nisnDist::1      2881492     11.47%     70.71% # Number of instructions fetched each cycle (Total) (Count)
system.bigCluster.cpus.fetch.nisnDist::2      3215826     12.81%     83.51% # Number of instructions fetched each cycle (Total) (Count)
system.bigCluster.cpus.fetch.nisnDist::3      4140803     16.49%    100.00% # Number of instructions fetched each cycle (Total) (Count)
system.bigCluster.cpus.fetch.nisnDist::overflows            0      0.00%    100.00% # Number of instructions fetched each cycle (Total) (Count)
system.bigCluster.cpus.fetch.nisnDist::min_value            0                       # Number of instructions fetched each cycle (Total) (Count)
system.bigCluster.cpus.fetch.nisnDist::max_value            3                       # Number of instructions fetched each cycle (Total) (Count)
system.bigCluster.cpus.fetch.nisnDist::total     25113793                       # Number of instructions fetched each cycle (Total) (Count)
system.bigCluster.cpus.fetch.branchRate      0.180763                       # Number of branch fetches per cycle (Ratio)
system.bigCluster.cpus.fetch.rate            0.735504                       # Number of inst fetches per cycle ((Count/Cycle))
system.bigCluster.cpus.icache.demandHits::bigCluster.cpus.inst      7448271                       # number of demand (read+write) hits (Count)
system.bigCluster.cpus.icache.demandHits::total      7448271                       # number of demand (read+write) hits (Count)
system.bigCluster.cpus.icache.overallHits::bigCluster.cpus.inst      7448271                       # number of overall hits (Count)
system.bigCluster.cpus.icache.overallHits::total      7448271                       # number of overall hits (Count)
system.bigCluster.cpus.icache.demandMisses::bigCluster.cpus.inst         1297                       # number of demand (read+write) misses (Count)
system.bigCluster.cpus.icache.demandMisses::total         1297                       # number of demand (read+write) misses (Count)
system.bigCluster.cpus.icache.overallMisses::bigCluster.cpus.inst         1297                       # number of overall misses (Count)
system.bigCluster.cpus.icache.overallMisses::total         1297                       # number of overall misses (Count)
system.bigCluster.cpus.icache.demandMissLatency::bigCluster.cpus.inst     57660500                       # number of demand (read+write) miss ticks (Tick)
system.bigCluster.cpus.icache.demandMissLatency::total     57660500                       # number of demand (read+write) miss ticks (Tick)
system.bigCluster.cpus.icache.overallMissLatency::bigCluster.cpus.inst     57660500                       # number of overall miss ticks (Tick)
system.bigCluster.cpus.icache.overallMissLatency::total     57660500                       # number of overall miss ticks (Tick)
system.bigCluster.cpus.icache.demandAccesses::bigCluster.cpus.inst      7449568                       # number of demand (read+write) accesses (Count)
system.bigCluster.cpus.icache.demandAccesses::total      7449568                       # number of demand (read+write) accesses (Count)
system.bigCluster.cpus.icache.overallAccesses::bigCluster.cpus.inst      7449568                       # number of overall (read+write) accesses (Count)
system.bigCluster.cpus.icache.overallAccesses::total      7449568                       # number of overall (read+write) accesses (Count)
system.bigCluster.cpus.icache.demandMissRate::bigCluster.cpus.inst     0.000174                       # miss rate for demand accesses (Ratio)
system.bigCluster.cpus.icache.demandMissRate::total     0.000174                       # miss rate for demand accesses (Ratio)
system.bigCluster.cpus.icache.overallMissRate::bigCluster.cpus.inst     0.000174                       # miss rate for overall accesses (Ratio)
system.bigCluster.cpus.icache.overallMissRate::total     0.000174                       # miss rate for overall accesses (Ratio)
system.bigCluster.cpus.icache.demandAvgMissLatency::bigCluster.cpus.inst 44456.823439                       # average overall miss latency ((Cycle/Count))
system.bigCluster.cpus.icache.demandAvgMissLatency::total 44456.823439                       # average overall miss latency ((Cycle/Count))
system.bigCluster.cpus.icache.overallAvgMissLatency::bigCluster.cpus.inst 44456.823439                       # average overall miss latency ((Cycle/Count))
system.bigCluster.cpus.icache.overallAvgMissLatency::total 44456.823439                       # average overall miss latency ((Cycle/Count))
system.bigCluster.cpus.icache.blockedCycles::no_mshrs           15                       # number of cycles access was blocked (Cycle)
system.bigCluster.cpus.icache.blockedCycles::no_targets           51                       # number of cycles access was blocked (Cycle)
[...]
system.mem_ctrls.bwTotal::bigCluster.cpus.mmu.itb_walker        65675                       # Total bandwidth to/from this memory ((Byte/Second))
system.mem_ctrls.bwTotal::bigCluster.cpus.inst      7696637                       # Total bandwidth to/from this memory ((Byte/Second))
system.mem_ctrls.bwTotal::bigCluster.cpus.data   1528356108                       # Total bandwidth to/from this memory ((Byte/Second))
system.mem_ctrls.bwTotal::littleCluster.cpus.data          631                       # Total bandwidth to/from this memory ((Byte/Second))
system.mem_ctrls.bwTotal::total            3154746769                       # Total bandwidth to/from this memory ((Byte/Second))
system.mem_ctrls.power_state.pwrStateResidencyTicks::UNDEFINED  12668390500                       # Cumulative time (in ticks) in various power states (Tick)
system.membus.transDist::ReadReq                 3904                       # Transaction distribution (Count)
system.membus.transDist::ReadResp                7238                       # Transaction distribution (Count)
system.membus.transDist::WriteReq                3792                       # Transaction distribution (Count)
system.membus.transDist::WriteResp               3792                       # Transaction distribution (Count)
system.membus.transDist::WritebackDirty        320361                       # Transaction distribution (Count)
system.membus.transDist::CleanEvict              2615                       # Transaction distribution (Count)
system.membus.transDist::UpgradeReq               217                       # Transaction distribution (Count)
system.membus.transDist::ReadExReq             299763                       # Transaction distribution (Count)
system.membus.transDist::ReadExResp            299762                       # Transaction distribution (Count)
system.membus.transDist::ReadCleanReq            3334                       # Transaction distribution (Count)
system.membus.transDist::CleanInvalidReq            1                       # Transaction distribution (Count)
system.membus.transDist::InvalidateReq          38216                       # Transaction distribution (Count)
system.membus.pktCount_system.bigCluster.l2.mem_side_port::system.mem_ctrls.port       978725                       # Packet count per connected requestor and responder (Count)
system.membus.pktCount_system.bigCluster.l2.mem_side_port::system.iobridge.cpu_side_port         4214                       # Packet count per connected requestor and responder (Count)
system.membus.pktCount_system.bigCluster.l2.mem_side_port::system.realview.bootmem.port           32                       # Packet count per connected requestor and responder (Count)
system.membus.pktCount_system.bigCluster.l2.mem_side_port::total       982971                       # Packet count per connected requestor and responder (Count)
system.membus.pktCount_system.littleCluster.l2.mem_side_port::system.mem_ctrls.port            2                       # Packet count per connected requestor and responder (Count)
system.membus.pktCount_system.littleCluster.l2.mem_side_port::system.realview.bootmem.port           22                       # Packet count per connected requestor and responder (Count)
system.membus.pktCount_system.littleCluster.l2.mem_side_port::total           24                       # Packet count per connected requestor and responder (Count)
system.membus.pktCount::total                  982995                       # Packet count per connected requestor and responder (Count)
system.membus.pktSize_system.bigCluster.l2.mem_side_port::system.mem_ctrls.port     39965492                       # Cumulative packet size per connected requestor and responder (Byte)
system.membus.pktSize_system.bigCluster.l2.mem_side_port::system.iobridge.cpu_side_port         6325                       # Cumulative packet size per connected requestor and responder (Byte)
system.membus.pktSize_system.bigCluster.l2.mem_side_port::system.realview.bootmem.port          220                       # Cumulative packet size per connected requestor and responder (Byte)
system.membus.pktSize_system.bigCluster.l2.mem_side_port::total     39972037                       # Cumulative packet size per connected requestor and responder (Byte)
system.membus.pktSize_system.littleCluster.l2.mem_side_port::system.mem_ctrls.port            8                       # Cumulative packet size per connected requestor and responder (Byte)
system.membus.pktSize_system.littleCluster.l2.mem_side_port::system.realview.bootmem.port          648                       # Cumulative packet size per connected requestor and responder (Byte)
system.membus.pktSize_system.littleCluster.l2.mem_side_port::total          656                       # Cumulative packet size per connected requestor and responder (Byte)
system.membus.pktSize::total                 39972693                       # Cumulative packet size per connected requestor and responder (Byte)
system.membus.snoops                                0                       # Total snoops (Count)
system.membus.snoopTraffic                          0                       # Total snoop traffic (Byte)
system.membus.snoopFanout::samples             349493                       # Request fanout histogram (Count)
system.membus.snoopFanout::mean                     0                       # Request fanout histogram (Count)
system.membus.snoopFanout::stdev                    0                       # Request fanout histogram (Count)
system.membus.snoopFanout::underflows               0      0.00%      0.00% # Request fanout histogram (Count)
system.membus.snoopFanout::0                   349493    100.00%    100.00% # Request fanout histogram (Count)
system.membus.snoopFanout::1                        0      0.00%    100.00% # Request fanout histogram (Count)
system.membus.snoopFanout::2                        0      0.00%    100.00% # Request fanout histogram (Count)
system.membus.snoopFanout::3                        0      0.00%    100.00% # Request fanout histogram (Count)
system.membus.snoopFanout::overflows                0      0.00%    100.00% # Request fanout histogram (Count)
system.membus.snoopFanout::min_value                0                       # Request fanout histogram (Count)
system.membus.snoopFanout::max_value                0                       # Request fanout histogram (Count)
system.membus.snoopFanout::total               349493                       # Request fanout histogram (Count)
system.membus.badaddr_responder.power_state.pwrStateResidencyTicks::UNDEFINED  12668390500                       # Cumulative time (in ticks) in various power states (Tick)
system.membus.power_state.pwrStateResidencyTicks::UNDEFINED  12668390500                       # Cumulative time (in ticks) in various power states (Tick)
system.membus.reqLayer0.occupancy          2149545266                       # Layer occupancy (ticks) (Tick)
system.membus.reqLayer0.utilization               0.2                       # Layer utilization (Ratio)
system.membus.reqLayer1.occupancy             3286000                       # Layer occupancy (ticks) (Tick)
system.membus.reqLayer1.utilization               0.0                       # Layer utilization (Ratio)
system.membus.reqLayer2.occupancy               33828                       # Layer occupancy (ticks) (Tick)
system.membus.reqLayer2.utilization               0.0                       # Layer utilization (Ratio)
system.membus.respLayer2.occupancy         1527056000                       # Layer occupancy (ticks) (Tick)
system.membus.respLayer2.utilization              0.1                       # Layer utilization (Ratio)
system.membus.respLayer3.occupancy              54000                       # Layer occupancy (ticks) (Tick)
system.membus.respLayer3.utilization              0.0                       # Layer utilization (Ratio)
system.membus.snoop_filter.totRequests         666767                       # Total number of requests made to the snoop filter. (Count)
system.membus.snoop_filter.hitSingleRequests       325191                       # Number of requests hitting in the snoop filter with a single holder of the requested data. (Count)
system.membus.snoop_filter.hitMultiRequests            0                       # Number of requests hitting in the snoop filter with multiple (>1) holders of the requested data. (Count)
system.membus.snoop_filter.totSnoops                0                       # Total number of snoops made to the snoop filter. (Count)
system.membus.snoop_filter.hitSingleSnoops            0                       # Number of snoops hitting in the snoop filter with a single holder of the requested data. (Count)
system.membus.snoop_filter.hitMultiSnoops            0                       # Number of snoops hitting in the snoop filter with multiple (>1) holders of the requested data. (Count)
system.pci_vio_block.power_state.pwrStateResidencyTicks::UNDEFINED  12668390500                       # Cumulative time (in ticks) in various power states (Tick)
system.realview.bootmem.bytesRead::bigCluster.cpus.inst          192                       # Number of bytes read from this memory (Byte)
system.realview.bootmem.bytesRead::bigCluster.cpus.data           28                       # Number of bytes read from this memory (Byte)
system.realview.bootmem.bytesRead::littleCluster.cpus.inst          640                       # Number of bytes read from this memory (Byte)
system.realview.bootmem.bytesRead::littleCluster.cpus.data            8                       # Number of bytes read from this memory (Byte)
system.realview.bootmem.bytesRead::total          868                       # Number of bytes read from this memory (Byte)
system.realview.bootmem.bytesInstRead::bigCluster.cpus.inst          192                       # Number of instructions bytes read from this memory (Byte)
system.realview.bootmem.bytesInstRead::littleCluster.cpus.inst          640                       # Number of instructions bytes read from this memory (Byte)
system.realview.bootmem.bytesInstRead::total          832                       # Number of instructions bytes read from this memory (Byte)
system.realview.bootmem.numReads::bigCluster.cpus.inst           12                       # Number of read requests responded to by this memory (Count)
system.realview.bootmem.numReads::bigCluster.cpus.data            4                       # Number of read requests responded to by this memory (Count)
system.realview.bootmem.numReads::littleCluster.cpus.inst           10                       # Number of read requests responded to by this memory (Count)
system.realview.bootmem.numReads::littleCluster.cpus.data            1                       # Number of read requests responded to by this memory (Count)
system.realview.bootmem.numReads::total            27                       # Number of read requests responded to by this memory (Count)
system.realview.bootmem.bwRead::bigCluster.cpus.inst        15156                       # Total read bandwidth from this memory ((Byte/Second))
system.realview.bootmem.bwRead::bigCluster.cpus.data         2210                       # Total read bandwidth from this memory ((Byte/Second))
system.realview.bootmem.bwRead::littleCluster.cpus.inst        50519                       # Total read bandwidth from this memory ((Byte/Second))
system.realview.bootmem.bwRead::littleCluster.cpus.data          631                       # Total read bandwidth from this memory ((Byte/Second))
system.realview.bootmem.bwRead::total           68517                       # Total read bandwidth from this memory ((Byte/Second))
system.realview.bootmem.bwInstRead::bigCluster.cpus.inst        15156                       # Instruction read bandwidth from this memory ((Byte/Second))
system.realview.bootmem.bwInstRead::littleCluster.cpus.inst        50519                       # Instruction read bandwidth from this memory ((Byte/Second))
system.realview.bootmem.bwInstRead::total        65675                       # Instruction read bandwidth from this memory ((Byte/Second))
system.realview.bootmem.bwTotal::bigCluster.cpus.inst        15156                       # Total bandwidth to/from this memory ((Byte/Second))
system.realview.bootmem.bwTotal::bigCluster.cpus.data         2210                       # Total bandwidth to/from this memory ((Byte/Second))
system.realview.bootmem.bwTotal::littleCluster.cpus.inst        50519                       # Total bandwidth to/from this memory ((Byte/Second))
system.realview.bootmem.bwTotal::littleCluster.cpus.data          631                       # Total bandwidth to/from this memory ((Byte/Second))
system.realview.bootmem.bwTotal::total          68517                       # Total bandwidth to/from this memory ((Byte/Second))
system.realview.bootmem.power_state.pwrStateResidencyTicks::UNDEFINED  12668390500                       # Cumulative time (in ticks) in various power states (Tick)
system.realview.clock24MHz.clock                41667                       # Clock period in ticks (Tick)
system.realview.clock32KHz.clock             31250000                       # Clock period in ticks (Tick)
system.realview.dcc.osc_cpu.clock               16667                       # Clock period in ticks (Tick)
system.realview.dcc.osc_ddr.clock               25000                       # Clock period in ticks (Tick)
system.realview.dcc.osc_hsbm.clock              25000                       # Clock period in ticks (Tick)
system.realview.dcc.osc_pxl.clock               42105                       # Clock period in ticks (Tick)
system.realview.dcc.osc_smb.clock               20000                       # Clock period in ticks (Tick)
system.realview.dcc.osc_sys.clock               16667                       # Clock period in ticks (Tick)
system.realview.el2_watchdog.power_state.pwrStateResidencyTicks::UNDEFINED  12668390500                       # Cumulative time (in ticks) in various power states (Tick)
system.realview.energy_ctrl.power_state.pwrStateResidencyTicks::UNDEFINED  12668390500                       # Cumulative time (in ticks) in various power states (Tick)
system.realview.flash0.power_state.pwrStateResidencyTicks::UNDEFINED  12668390500                       # Cumulative time (in ticks) in various power states (Tick)
system.realview.flash1.power_state.pwrStateResidencyTicks::UNDEFINED  12668390500                       # Cumulative time (in ticks) in various power states (Tick)
system.realview.generic_timer_mem.frames0.power_state.pwrStateResidencyTicks::UNDEFINED  12668390500                       # Cumulative time (in ticks) in various power states (Tick)
system.realview.generic_timer_mem.frames1.power_state.pwrStateResidencyTicks::UNDEFINED  12668390500                       # Cumulative time (in ticks) in various power states (Tick)
system.realview.generic_timer_mem.power_state.pwrStateResidencyTicks::UNDEFINED  12668390500                       # Cumulative time (in ticks) in various power states (Tick)
system.realview.gic.power_state.pwrStateResidencyTicks::UNDEFINED  12668390500                       # Cumulative time (in ticks) in various power states (Tick)
system.realview.gicv2m.power_state.pwrStateResidencyTicks::UNDEFINED  12668390500                       # Cumulative time (in ticks) in various power states (Tick)
system.realview.io_voltage.voltage           3.300000                       # Voltage in Volts (Volt)
system.realview.kmi0.power_state.pwrStateResidencyTicks::UNDEFINED  12668390500                       # Cumulative time (in ticks) in various power states (Tick)
system.realview.kmi1.power_state.pwrStateResidencyTicks::UNDEFINED  12668390500                       # Cumulative time (in ticks) in various power states (Tick)
system.realview.mcc.osc_clcd.clock              42105                       # Clock period in ticks (Tick)
system.realview.mcc.osc_mcc.clock               20000                       # Clock period in ticks (Tick)
system.realview.mcc.osc_peripheral.clock        41667                       # Clock period in ticks (Tick)
system.realview.mcc.osc_system_bus.clock        41667                       # Clock period in ticks (Tick)
system.realview.non_trusted_sram.power_state.pwrStateResidencyTicks::UNDEFINED  12668390500                       # Cumulative time (in ticks) in various power states (Tick)
system.realview.pci_host.power_state.pwrStateResidencyTicks::UNDEFINED  12668390500                       # Cumulative time (in ticks) in various power states (Tick)
system.realview.pwr_ctrl.power_state.pwrStateResidencyTicks::UNDEFINED  12668390500                       # Cumulative time (in ticks) in various power states (Tick)
system.realview.realview_io.power_state.pwrStateResidencyTicks::UNDEFINED  12668390500                       # Cumulative time (in ticks) in various power states (Tick)
system.realview.rtc.power_state.pwrStateResidencyTicks::UNDEFINED  12668390500                       # Cumulative time (in ticks) in various power states (Tick)
system.realview.system_watchdog.power_state.pwrStateResidencyTicks::UNDEFINED  12668390500                       # Cumulative time (in ticks) in various power states (Tick)
system.realview.trusted_dram.power_state.pwrStateResidencyTicks::UNDEFINED  12668390500                       # Cumulative time (in ticks) in various power states (Tick)
system.realview.trusted_sram.power_state.pwrStateResidencyTicks::UNDEFINED  12668390500                       # Cumulative time (in ticks) in various power states (Tick)
system.realview.trusted_watchdog.power_state.pwrStateResidencyTicks::UNDEFINED  12668390500                       # Cumulative time (in ticks) in various power states (Tick)
system.realview.uart0.power_state.pwrStateResidencyTicks::UNDEFINED  12668390500                       # Cumulative time (in ticks) in various power states (Tick)
system.realview.uart1.power_state.pwrStateResidencyTicks::UNDEFINED  12668390500                       # Cumulative time (in ticks) in various power states (Tick)
system.realview.uart2.power_state.pwrStateResidencyTicks::UNDEFINED  12668390500                       # Cumulative time (in ticks) in various power states (Tick)
system.realview.uart3.power_state.pwrStateResidencyTicks::UNDEFINED  12668390500                       # Cumulative time (in ticks) in various power states (Tick)
system.realview.vgic.power_state.pwrStateResidencyTicks::UNDEFINED  12668390500                       # Cumulative time (in ticks) in various power states (Tick)
system.realview.vio0.power_state.pwrStateResidencyTicks::UNDEFINED  12668390500                       # Cumulative time (in ticks) in various power states (Tick)
system.realview.vio1.power_state.pwrStateResidencyTicks::UNDEFINED  12668390500                       # Cumulative time (in ticks) in various power states (Tick)
system.realview.vram.power_state.pwrStateResidencyTicks::UNDEFINED  12668390500                       # Cumulative time (in ticks) in various power states (Tick)
system.realview.watchdog.power_state.pwrStateResidencyTicks::UNDEFINED  12668390500                       # Cumulative time (in ticks) in various power states (Tick)
system.voltage_domain.voltage                       1                       # Voltage in Volts (Volt)
system.workload.inst.arm                            0                       # number of arm instructions executed (Count)
system.workload.inst.quiesce                        2                       # number of quiesce instructions executed (Count)
system.littleCluster.cpus.idleCycles              611                       # Total number of cycles that the object has spent stopped (Unspecified)
system.littleCluster.cpus.tickCycles               70                       # Number of cycles that the object actually ticked (Unspecified)

---------- End Simulation Statistics   ----------
